*Heading
** Job name: Reinforce_concrete_cylinder_compression-status-var-ON Model name: Model-1
** Generated by: Abaqus/CAE 2019
*Preprint, echo=NO, model=NO, history=NO, contact=NO
**
** PARTS
**
*Part, name=Part-1
*Node
      1,         -50.,           0.,         100.
      2,           0.,           0.,         100.
      3,           0.,          50.,         100.
      4,           0.,           0.,           0.
      5,         -50.,           0.,           0.
      6,           0.,          50.,           0.
      7,          50.,           0.,         100.
      8,           0.,         -50.,         100.
      9,          50.,           0.,           0.
     10,           0.,         -50.,           0.
     11,         -50.,           0.,         200.
     12,           0.,           0.,         200.
     13,           0.,          50.,         200.
     14,          50.,           0.,         200.
     15,           0.,         -50.,         200.
     16,  -9.75451565,   49.0392647,         100.
     17,  -19.1341724,   46.1939774,         100.
     18,   -27.778511,   41.5734825,         100.
     19,  -35.3553391,   35.3553391,         100.
     20,  -41.5734825,    27.778511,         100.
** ... 2353 like lines cut
*Element, type=C3D8
  1,  290,  291, 1237, 1229,   19,   20,  239,  238
  2,  291,  292, 1238, 1237,   20,   21,  240,  239
  3,  292,  293, 1239, 1238,   21,   22,  241,  240
  4,  293,   35,  254, 1239,   22,    1,   23,  241
  5,  294,  295, 1240, 1228,  290,  291, 1237, 1229
  6,  295,  296, 1241, 1240,  291,  292, 1238, 1237
  7,  296,  297, 1242, 1241,  292,  293, 1239, 1238
  8,  297,   34,  255, 1242,  293,   35,  254, 1239
  9,  298,  299, 1243, 1227,  294,  295, 1240, 1228
 10,  299,  300, 1244, 1243,  295,  296, 1241, 1240
 11,  300,  301, 1245, 1244,  296,  297, 1242, 1241
 12,  301,   33,  256, 1245,  297,   34,  255, 1242
 13,  302,  303, 1246, 1226,  298,  299, 1243, 1227
 14,  303,  304, 1247, 1246,  299,  300, 1244, 1243
 15,  304,  305, 1248, 1247,  300,  301, 1245, 1244
 16,  305,   32,  257, 1248,  301,   33,  256, 1245
 17,  306,  307, 1225, 1222,  302,  303, 1246, 1226
 18,  307,  308, 1224, 1225,  303,  304, 1247, 1246
 19,  308,  309, 1223, 1224,  304,  305, 1248, 1247
 20,  309,   31,  258, 1223,  305,   32,  257, 1248
** ... 1900 like lines cut
*Nset, nset=Set-2, generate
    1,  2373,     1
*Elset, elset=Set-2, generate
    1,  1920,     1
** Section: Section-1
*Solid Section, elset=Set-2, controls=EC-1, material=Material-1
,
*End Part
**  
*Part, name=Part-2
*Node
      1,           0.,           0.,           0.
      2,          10.,           0.,           0.
      3,          20.,           0.,           0.
      4,          30.,           0.,           0.
      5,          40.,           0.,           0.
      6,          50.,           0.,           0.
      7,          60.,           0.,           0.
      8,          70.,           0.,           0.
      9,          80.,           0.,           0.
     10,          90.,           0.,           0.
     11,         100.,           0.,           0.
     12,         110.,           0.,           0.
     13,         120.,           0.,           0.
     14,         130.,           0.,           0.
     15,         140.,           0.,           0.
     16,         150.,           0.,           0.
     17,         160.,           0.,           0.
     18,         170.,           0.,           0.
     19,         180.,           0.,           0.
     20,         190.,           0.,           0.
     21,         200.,           0.,           0.
*Element, type=B31
 1,  1,  2
 2,  2,  3
 3,  3,  4
 4,  4,  5
 5,  5,  6
 6,  6,  7
 7,  7,  8
 8,  8,  9
 9,  9, 10
10, 10, 11
11, 11, 12
12, 12, 13
13, 13, 14
14, 14, 15
15, 15, 16
16, 16, 17
17, 17, 18
18, 18, 19
19, 19, 20
20, 20, 21
*Nset, nset=Set-1, generate
  1,  21,   1
*Elset, elset=Set-1, generate
  1,  20,   1
*Nset, nset=Set-2, generate
  1,  21,   1
*Elset, elset=Set-2, generate
  1,  20,   1
** Section: Section-3  Profile: Profile-1
*Beam Section, elset=Set-2, material=Material-2, temperature=GRADIENTS, section=CIRC
2.5
0.,0.,-1.
*End Part
**  
**
** ASSEMBLY
**
*Assembly, name=Assembly
**  
*Instance, name=Part-1-1, part=Part-1
*End Instance
**  
*Instance, name=Part-2-1, part=Part-2
         25.,           0.,         200.
         25.,           0.,         200.,          25., 1.00000001268805,         200., 89.9999992730282
*End Instance
**  
*Instance, name=Part-2-1-rad-2, part=Part-2
23.7764129073788, 7.72542485937368,         200.
23.7764129073788, 7.72542485937368,         200., 23.621858133667, 8.70124533046446, 200.154554773712, 91.4022689048954
*End Instance
**  
*Instance, name=Part-2-1-rad-3, part=Part-2
20.2254248593737, 14.6946313073118,         200.
20.2254248593737, 14.6946313073118,         200., 19.9301830635616, 15.6032921677381, 200.295241795812, 95.4796090923547
*End Instance
**  
*Instance, name=Part-2-1-rad-4, part=Part-2
14.6946313073118, 20.2254248593737,         200.
14.6946313073118, 20.2254248593737,         200., 14.2812471883332, 21.0367368750466, 200.413384118979, 101.894330015786
*End Instance
**  
*Instance, name=Part-2-1-rad-5, part=Part-2
7.72542485937369, 23.7764129073788,         200.
7.72542485937369, 23.7764129073788,         200., 7.21869300373835, 24.4738694833745, 200.506731855635, 110.211800752627
*End Instance
**  
*Instance, name=Part-2-1-rad-6, part=Part-2
1.53080849893419e-15,          25.,         200.
1.53080849893419e-15,          25.,         200., -0.577350269189624, 25.5773502691896, 200.57735026919,         120.
*End Instance
**  
*Instance, name=Part-2-1-rad-7, part=Part-2
-7.72542485937368, 23.7764129073788,         200.
-7.72542485937368, 23.7764129073788,         200., -8.35438502957204, 24.2333792119984, 200.628960170198, 130.882392777328
*End Instance
**  
*Instance, name=Part-2-1-rad-8, part=Part-2
-14.6946313073118, 20.2254248593737,         200.
-14.6946313073118, 20.2254248593737,         200., -15.3598779220635, 20.5643849393801, 200.665246614752, 142.550785292882
*End Instance
**  
*Instance, name=Part-2-1-rad-9, part=Part-2
-20.2254248593737, 14.6946313073118,         200.
-20.2254248593737, 14.6946313073118,         200., -20.9145766127575, 14.9185502743516, 200.689151753384, 154.757168430281
*End Instance
**  
*Instance, name=Part-2-1-rad-10, part=Part-2
-23.7764129073788, 7.72542485937369,         200.
-23.7764129073788, 7.72542485937369,         200., -24.4791264094056, 7.83672374016944, 200.702713502027, 167.298362525798
*End Instance
**  
*Instance, name=Part-2-1-rad-11, part=Part-2
        -25., 3.06161699786838e-15,         200.
        -25., 3.06161699786838e-15,         200., -25.7071067901584, 3.10491480217589e-15, 200.707106790158,         180.
*End Instance
**  
*Instance, name=Part-2-1-rad-12, part=Part-2
-23.7764129073788, -7.72542485937369,         200.
-23.7764129073788, -7.72542485937369,         200., -24.4791264094056, -7.83672374016945, 200.702713502027, 192.701637474202
*End Instance
**  
*Instance, name=Part-2-1-rad-13, part=Part-2
-20.2254248593737, -14.6946313073118,         200.
-20.2254248593737, -14.6946313073118,         200., -20.9145766127575, -14.9185502743516, 200.689151753384, 205.242831569719
*End Instance
**  
*Instance, name=Part-2-1-rad-14, part=Part-2
-14.6946313073118, -20.2254248593737,         200.
-14.6946313073118, -20.2254248593737,         200., -15.3598779220635, -20.5643849393801, 200.665246614752, 217.449214707118
*End Instance
**  
*Instance, name=Part-2-1-rad-15, part=Part-2
-7.72542485937369, -23.7764129073788,         200.
-7.72542485937369, -23.7764129073788,         200., -8.35438502957205, -24.2333792119984, 200.628960170198, 229.117607222672
*End Instance
**  
*Instance, name=Part-2-1-rad-16, part=Part-2
-4.59242549680257e-15,         -25.,         200.
-4.59242549680257e-15,         -25.,         200., -0.57735026918963, -25.5773502691896, 200.57735026919,         240.
*End Instance
**  
*Instance, name=Part-2-1-rad-17, part=Part-2
7.72542485937368, -23.7764129073788,         200.
7.72542485937368, -23.7764129073788,         200., 8.23215671500901, -23.0789563313832, 199.493268144365, 110.211800752627
*End Instance
**  
*Instance, name=Part-2-1-rad-18, part=Part-2
14.6946313073118, -20.2254248593737,         200.
14.6946313073118, -20.2254248593737,         200., 15.1080154262905, -19.4141128437007, 199.586615881021, 101.894330015786
*End Instance
**  
*Instance, name=Part-2-1-rad-19, part=Part-2
20.2254248593737, -14.6946313073118,         200.
20.2254248593737, -14.6946313073118,         200., 20.5206666551858, -13.7859704468856, 199.704758204188, 95.4796090923547
*End Instance
**  
*Instance, name=Part-2-1-rad-20, part=Part-2
23.7764129073788, -7.72542485937369,         200.
23.7764129073788, -7.72542485937369,         200., 23.9309676810907, -6.74960438828292, 199.845445226288, 91.4022689048954
*End Instance
**  
*Node
      1,           0.,           0.,           0.
*Nset, nset=Set-1, instance=Part-1-1
   11,   12,   13,   14,   15,  162,  163,  164,  165,  166,  167,  168,  169,  170,  171,  172
  173,  174,  175,  176,  195,  196,  197,  198,  199,  200,  201,  202,  203,  204,  205,  206
  207,  208,  209,  210,  211,  212,  213,  214,  215,  216,  231,  232,  233,  234,  235,  236
  237,  802,  803,  804,  805,  806,  807,  808,  809,  810,  811,  812,  813,  814,  815,  816
  817,  953,  954,  955,  956,  957,  958,  959,  960,  961,  962,  963,  964,  965,  966,  967
  968, 1032, 1033, 1034, 1035, 1036, 1037, 1038, 1039, 1040, 1041, 1042, 1043, 1044, 1045, 1046
 1047, 1143, 1144, 1145, 1146, 1147, 1148, 1149, 1150, 1151, 1152, 1153, 1154, 1155, 1156, 1157
 1158,
*Elset, elset=Set-1, instance=Part-1-1
  841,  846,  851,  856,  865,  870,  875,  880,  885,  890,  895,  900,  905,  910,  915,  920
  925,  930,  935,  940,  941,  942,  943,  944, 1085, 1090, 1095, 1100, 1105, 1110, 1115, 1120
 1125, 1130, 1135, 1140, 1145, 1150, 1155, 1160, 1161, 1166, 1171, 1176, 1185, 1190, 1195, 1200
 1325, 1330, 1335, 1340, 1341, 1342, 1343, 1344, 1365, 1370, 1375, 1380, 1385, 1390, 1395, 1400
 1405, 1410, 1415, 1420, 1425, 1430, 1435, 1440, 1681, 1682, 1683, 1684, 1701, 1702, 1703, 1704
 1705, 1706, 1707, 1708, 1709, 1710, 1711, 1712, 1713, 1714, 1715, 1716, 1781, 1782, 1783, 1784
*Nset, nset=Set-2, instance=Part-1-1
    4,    5,    6,    9,   10,   58,   59,   60,   61,   62,   63,   64,   65,   66,   67,   68
   69,   70,   71,   72,  106,  107,  108,  109,  110,  111,  112,  113,  114,  115,  116,  117
  118,  119,  120,  128,  129,  130,  131,  132,  133,  134,  224,  225,  226,  227,  228,  229
  230,  389,  390,  391,  392,  393,  394,  395,  396,  397,  398,  399,  400,  401,  402,  403
  404,  556,  557,  558,  559,  560,  561,  562,  563,  564,  565,  566,  567,  568,  569,  570
  571,  651,  652,  653,  654,  655,  656,  657,  658,  659,  660,  661,  662,  663,  664,  665
  666, 1127, 1128, 1129, 1130, 1131, 1132, 1133, 1134, 1135, 1136, 1137, 1138, 1139, 1140, 1141
 1142,
*Elset, elset=Set-2, instance=Part-1-1
  121,  122,  123,  124,  141,  142,  143,  144,  161,  162,  163,  164,  181,  182,  183,  184
  205,  210,  215,  220,  221,  226,  231,  236,  365,  370,  375,  380,  381,  382,  383,  384
  401,  402,  403,  404,  421,  422,  423,  424,  441,  442,  443,  444,  465,  470,  475,  480
  605,  610,  615,  620,  621,  622,  623,  624,  645,  650,  655,  660,  665,  670,  675,  680
  685,  690,  695,  700,  705,  710,  715,  720, 1545, 1550, 1555, 1560, 1565, 1570, 1575, 1580
 1585, 1590, 1595, 1600, 1605, 1610, 1615, 1620, 1621, 1626, 1631, 1636, 1665, 1670, 1675, 1680
*Nset, nset=Set-5
 1,
*Nset, nset=m_Set-6, instance=Part-2-1, generate
  1,  21,   1
*Nset, nset=m_Set-6, instance=Part-2-1-rad-2, generate
  1,  21,   1
*Nset, nset=m_Set-6, instance=Part-2-1-rad-4, generate
  1,  21,   1
*Nset, nset=m_Set-6, instance=Part-2-1-rad-6, generate
  1,  21,   1
*Nset, nset=m_Set-6, instance=Part-2-1-rad-14, generate
  1,  21,   1
*Nset, nset=m_Set-6, instance=Part-2-1-rad-10, generate
  1,  21,   1
*Nset, nset=m_Set-6, instance=Part-2-1-rad-18, generate
  1,  21,   1
*Nset, nset=m_Set-6, instance=Part-2-1-rad-8, generate
  1,  21,   1
*Nset, nset=m_Set-6, instance=Part-2-1-rad-16, generate
  1,  21,   1
*Nset, nset=m_Set-6, instance=Part-2-1-rad-12, generate
  1,  21,   1
*Nset, nset=m_Set-6, instance=Part-2-1-rad-20, generate
  1,  21,   1
*Nset, nset=m_Set-6, instance=Part-2-1-rad-3, generate
  1,  21,   1
*Nset, nset=m_Set-6, instance=Part-2-1-rad-7, generate
  1,  21,   1
*Nset, nset=m_Set-6, instance=Part-2-1-rad-15, generate
  1,  21,   1
*Nset, nset=m_Set-6, instance=Part-2-1-rad-11, generate
  1,  21,   1
*Nset, nset=m_Set-6, instance=Part-2-1-rad-19, generate
  1,  21,   1
*Nset, nset=m_Set-6, instance=Part-2-1-rad-5, generate
  1,  21,   1
*Nset, nset=m_Set-6, instance=Part-2-1-rad-9, generate
  1,  21,   1
*Nset, nset=m_Set-6, instance=Part-2-1-rad-17, generate
  1,  21,   1
*Nset, nset=m_Set-6, instance=Part-2-1-rad-13, generate
  1,  21,   1
*Elset, elset=m_Set-6, instance=Part-2-1, generate
  1,  20,   1
*Elset, elset=m_Set-6, instance=Part-2-1-rad-2, generate
  1,  20,   1
*Elset, elset=m_Set-6, instance=Part-2-1-rad-4, generate
  1,  20,   1
*Elset, elset=m_Set-6, instance=Part-2-1-rad-6, generate
  1,  20,   1
*Elset, elset=m_Set-6, instance=Part-2-1-rad-14, generate
  1,  20,   1
*Elset, elset=m_Set-6, instance=Part-2-1-rad-10, generate
  1,  20,   1
*Elset, elset=m_Set-6, instance=Part-2-1-rad-18, generate
  1,  20,   1
*Elset, elset=m_Set-6, instance=Part-2-1-rad-8, generate
  1,  20,   1
*Elset, elset=m_Set-6, instance=Part-2-1-rad-16, generate
  1,  20,   1
*Elset, elset=m_Set-6, instance=Part-2-1-rad-12, generate
  1,  20,   1
*Elset, elset=m_Set-6, instance=Part-2-1-rad-20, generate
  1,  20,   1
*Elset, elset=m_Set-6, instance=Part-2-1-rad-3, generate
  1,  20,   1
*Elset, elset=m_Set-6, instance=Part-2-1-rad-7, generate
  1,  20,   1
*Elset, elset=m_Set-6, instance=Part-2-1-rad-15, generate
  1,  20,   1
*Elset, elset=m_Set-6, instance=Part-2-1-rad-11, generate
  1,  20,   1
*Elset, elset=m_Set-6, instance=Part-2-1-rad-19, generate
  1,  20,   1
*Elset, elset=m_Set-6, instance=Part-2-1-rad-5, generate
  1,  20,   1
*Elset, elset=m_Set-6, instance=Part-2-1-rad-9, generate
  1,  20,   1
*Elset, elset=m_Set-6, instance=Part-2-1-rad-17, generate
  1,  20,   1
*Elset, elset=m_Set-6, instance=Part-2-1-rad-13, generate
  1,  20,   1
*Nset, nset=s_Set-7, instance=Part-1-1, generate
    1,  2373,     1
*Elset, elset=s_Set-7, instance=Part-1-1, generate
    1,  1920,     1
*Nset, nset=t_Set-3, instance=Part-1-1
    4,    5,    6,    9,   10,   58,   59,   60,   61,   62,   63,   64,   65,   66,   67,   68
   69,   70,   71,   72,  106,  107,  108,  109,  110,  111,  112,  113,  114,  115,  116,  117
  118,  119,  120,  128,  129,  130,  131,  132,  133,  134,  224,  225,  226,  227,  228,  229
  230,  389,  390,  391,  392,  393,  394,  395,  396,  397,  398,  399,  400,  401,  402,  403
  404,  556,  557,  558,  559,  560,  561,  562,  563,  564,  565,  566,  567,  568,  569,  570
  571,  651,  652,  653,  654,  655,  656,  657,  658,  659,  660,  661,  662,  663,  664,  665
  666, 1127, 1128, 1129, 1130, 1131, 1132, 1133, 1134, 1135, 1136, 1137, 1138, 1139, 1140, 1141
 1142,
*Elset, elset=t_Set-3, instance=Part-1-1
  121,  122,  123,  124,  141,  142,  143,  144,  161,  162,  163,  164,  181,  182,  183,  184
  205,  210,  215,  220,  221,  226,  231,  236,  365,  370,  375,  380,  381,  382,  383,  384
  401,  402,  403,  404,  421,  422,  423,  424,  441,  442,  443,  444,  465,  470,  475,  480
  605,  610,  615,  620,  621,  622,  623,  624,  645,  650,  655,  660,  665,  670,  675,  680
  685,  690,  695,  700,  705,  710,  715,  720, 1545, 1550, 1555, 1560, 1565, 1570, 1575, 1580
 1585, 1590, 1595, 1600, 1605, 1610, 1615, 1620, 1621, 1626, 1631, 1636, 1665, 1670, 1675, 1680
*Nset, nset=_PickedSet8, internal
 1,
** Constraint: Constraint-1
*Rigid Body, ref node=_PickedSet8, tie nset=t_Set-3
** Constraint: Constraint-2
*Embedded Element, host elset=s_Set-7
m_Set-6
*End Assembly
** 
** ELEMENT CONTROLS
** 
*Section Controls, name=EC-1, ELEMENT DELETION=YES
1., 1., 1.
*Amplitude, name=Amp-1
           0.01,            0.01,            0.02,            0.02,            0.03,            0.03,            0.04,            0.04
           0.05,            0.05,            0.06,            0.06,            0.07,            0.07,            0.08,            0.08
           0.09,            0.09,             0.1,             0.1,            0.11,            0.11,            0.12,            0.12
           0.13,            0.13,            0.14,            0.14,            0.15,            0.15,            0.16,            0.16
           0.17,            0.17,            0.18,            0.18,            0.19,            0.19,             0.2,             0.2
           0.21,            0.21,            0.22,            0.22,            0.23,            0.23,            0.24,            0.24
           0.25,            0.25,            0.26,            0.26,            0.27,            0.27,            0.28,            0.28
           0.29,            0.29,             0.3,             0.3,            0.31,            0.31,            0.32,            0.32
           0.33,            0.33,            0.34,            0.34,            0.35,            0.35,            0.36,            0.36
           0.37,            0.37,            0.38,            0.38,            0.39,            0.39,             0.4,             0.4
           0.41,            0.41,            0.42,            0.42,            0.43,            0.43,            0.44,            0.44
           0.45,            0.45,            0.46,            0.46,            0.47,            0.47,            0.48,            0.48
           0.49,            0.49,             0.5,             0.5,            0.51,            0.51,            0.52,            0.52
           0.53,            0.53,            0.54,            0.54,            0.55,            0.55,            0.56,            0.56
           0.57,            0.57,            0.58,            0.58,            0.59,            0.59,             0.6,             0.6
           0.61,            0.61,            0.62,            0.62,            0.63,            0.63,            0.64,            0.64
           0.65,            0.65,            0.66,            0.66,            0.67,            0.67,            0.68,            0.68
           0.69,            0.69,             0.7,             0.7,            0.71,            0.71,            0.72,            0.72
           0.73,            0.73,            0.74,            0.74,            0.75,            0.75,            0.76,            0.76
           0.77,            0.77,            0.78,            0.78,            0.79,            0.79,             0.8,             0.8
** ... 5 like lines cut
** 
** MATERIALS
** 
*Material, name=Material-1
*Density
 2.5e-09,
*Elastic
 34007.3, 0.2
*Concrete Damaged Plasticity
35.,   0.1,  1.16,  0.67, 1e-05
*Concrete Compression Hardening
 25.5973,          0.
 30.1284, 1.95443e-05
 35.6329, 7.61914e-05
 42.5973, 0.000209666
 47.7158, 0.000336492
 52.4483, 0.000682671
 56.9962,  0.00134523
 58.0534,  0.00182259
 56.4088,   0.0023668
  53.321,  0.00284419
 49.8471,  0.00313964
 44.5273,  0.00352718
 39.7948,  0.00378611
 33.8036,  0.00422911
 29.0711,    0.004633
 23.7261,  0.00530232
 18.4986,  0.00645604
  13.271,  0.00760976
 8.04344,  0.00876348
 2.81589,   0.0099172
*Concrete Tension Stiffening
 2.842,0.
*Concrete Compression Damage
        0.,          0.
        0., 1.95443e-05
        0., 7.61914e-05
        0., 0.000209666
        0., 0.000336492
        0., 0.000682671
        0.,  0.00134523
        0.,  0.00182259
        0.,   0.0023668
        0.,  0.00284419
        0.,  0.00313964
        0.,  0.00352718
 0.0525057,  0.00378611
  0.195152,  0.00422911
*Concrete Failure, TYPE=Strain
0,0.009917198,0,0.932955095
*Material, name=Material-2
*Density
 7.8e-09,
*Elastic
208000., 0.3
*Plastic
208.,0.
** 
** BOUNDARY CONDITIONS
** 
** Name: BC-1 Type: Displacement/Rotation
*Boundary
Set-1, 1, 1
Set-1, 2, 2
Set-1, 3, 3
** ----------------------------------------------------------------
** 
** STEP: Step-1
** 
*Step, name=Step-1, nlgeom=YES
*Dynamic, Explicit
, 1.
*Bulk Viscosity
0.06, 1.2
** 
** BOUNDARY CONDITIONS
** 
** Name: BC-2 Type: Displacement/Rotation
*Boundary
Set-2, 1, 1
Set-2, 2, 2
** Name: BC-3 Type: Displacement/Rotation
*Boundary, amplitude=Amp-1
Set-5, 3, 3, 10.
** 
** OUTPUT REQUESTS
** 
*Restart, write, number interval=1, time marks=NO
** 
** FIELD OUTPUT: F-Output-1
** 
*Output, field, time interval=0.01
*Node Output
A, RF, U, V
*Element Output, directions=YES
DAMAGEC, EVF, LE, PE, PEEQ, PEEQVAVG, PEVAVG, S, STATUS, SVAVG
*Contact Output
CSTRESS, 
** 
** HISTORY OUTPUT: H-Output-1
** 
*Output, history, variable=PRESELECT
*End Step
